LTspice 24.1.9 for Windows
Circuit: C:\Users\DeskDave\Desktop\inverter_control\controller.net
Start Time: Sun Jun 28 16:04:46 2026
solver = Normal
Maximum thread count: 20
tnom = 27
temp = 27
method = trap
Instance "m1:M1": Width narrower than recommended for a level 3 MOSFET.
Direct Newton iteration failed to find .op point.  (Use ".option noopiter" to skip.)
Starting Gmin stepping
Gmin = 10
Gmin = 1.07374
Gmin = 0.115292
Gmin = 0.0123794
Gmin = 0.00132923
Gmin = 0.000142725
Gmin = 1.5325e-05
Gmin = 1.6455e-06
Gmin = 1.76685e-07
Gmin = 1.89714e-08
Gmin = 2.03704e-09
Gmin = 2.18725e-10
Gmin = 2.34854e-11
Gmin = 2.52173e-12
Gmin = 2.70769e-13
Gmin = 0
Gmin stepping succeeded in finding the operating point.

Total elapsed time: 0.122 seconds.

Files loaded:
C:\Users\DeskDave\Desktop\inverter_control\controller.net
C:\Users\DeskDave\AppData\Local\LTspice\lib\cmp\standard.dio
C:\Users\DeskDave\Desktop\inverter_control\DMT6009LCT.spice.txt
C:\Users\DeskDave\Desktop\inverter_control\irf4905.spi
C:\Users\DeskDave\Desktop\inverter_control\irf540n.txt

