LTspice 24.1.9 for Windows
Circuit: C:\Users\DeskDave\Desktop\inverter_control\simple_subtract.net
Start Time: Sun Jun 28 19:09:19 2026
solver = Normal
Maximum thread count: 20
tnom = 27
temp = 27
method = trap
Direct Newton iteration for .op point succeeded.
Total elapsed time: 0.037 seconds.

Files loaded:
C:\Users\DeskDave\Desktop\inverter_control\simple_subtract.net
C:\Users\DeskDave\Documents\LTspice\AZ431-A.spice.txt

